
**** 05/29/05 17:09:46 ********* PSpice 9.1 (Nov 1999) ******** ID# 251265024 

 * H:\Lab-4\lab-4-2\lab-4-2.sch


 ****     CIRCUIT DESCRIPTION


******************************************************************************




* Schematics Version 9.1 - Web Update 1
* Sun May 29 01:02:23 2005



** Analysis setup **
.tran 1ms 6ms
.OP 
.STMLIB "H:\Lab-4\lab-4-2\lab-4-2.stl"


* From [PSPICE NETLIST] section of pspice91.ini:
.lib "nom.lib"

.INC "lab-4-2.net"

**** INCLUDING lab-4-2.net ****
* Schematics Netlist *



U_DSTM1         STIM(1,0) $G_DPWR $G_DGND $N_0001 IO_STM STIMULUS=A0
U_DSTM2         STIM(1,0) $G_DPWR $G_DGND $N_0002 IO_STM STIMULUS=A1
U_DSTM3         STIM(1,0) $G_DPWR $G_DGND $N_0003 IO_STM STIMULUS=A2
U_DSTM4         STIM(1,0) $G_DPWR $G_DGND $N_0004 IO_STM STIMULUS=A3
X_U1         $N_0004 $N_0003 $N_0002 $N_0001 $N_0005 $N_0006 $N_0007 $N_0008
+  $D_LO $D_HI $D_LO $N_0014 $N_0013 $N_0012 $G_DPWR $G_DGND 7485 PARAMS:
+ IO_LEVEL=0 MNTYMXDLY=0
U_DSTM8         STIM(1,0) $G_DPWR $G_DGND $N_0005 IO_STM STIMULUS=B3
U_DSTM7         STIM(1,0) $G_DPWR $G_DGND $N_0006 IO_STM STIMULUS=B2
U_DSTM6         STIM(1,0) $G_DPWR $G_DGND $N_0007 IO_STM STIMULUS=B1
U_DSTM5         STIM(1,0) $G_DPWR $G_DGND $N_0008 IO_STM STIMULUS=B0

**** RESUMING lab-4-2.cir ****
.INC "lab-4-2.als"



**** INCLUDING lab-4-2.als ****
* Schematics Aliases *

.ALIASES
U_DSTM1          DSTM1(PWR=$G_DPWR GND=$G_DGND OUT0=$N_0001 )
U_DSTM2          DSTM2(PWR=$G_DPWR GND=$G_DGND OUT0=$N_0002 )
U_DSTM3          DSTM3(PWR=$G_DPWR GND=$G_DGND OUT0=$N_0003 )
U_DSTM4          DSTM4(PWR=$G_DPWR GND=$G_DGND OUT0=$N_0004 )
X_U1            U1(A3=$N_0004 A2=$N_0003 A1=$N_0002 A0=$N_0001 B3=$N_0005
+  B2=$N_0006 B1=$N_0007 B0=$N_0008 AgtB_IN=$D_LO AeqB_IN=$D_HI AltB_IN=$D_LO
+  AgtB=$N_0014 AeqB=$N_0013 AltB=$N_0012 PWR=$G_DPWR GND=$G_DGND )
U_DSTM8          DSTM8(PWR=$G_DPWR GND=$G_DGND OUT0=$N_0005 )
U_DSTM7          DSTM7(PWR=$G_DPWR GND=$G_DGND OUT0=$N_0006 )
U_DSTM6          DSTM6(PWR=$G_DPWR GND=$G_DGND OUT0=$N_0007 )
U_DSTM5          DSTM5(PWR=$G_DPWR GND=$G_DGND OUT0=$N_0008 )
_    _($G_DPWR=$G_DPWR)
_    _($G_DGND=$G_DGND)
.ENDALIASES


**** RESUMING lab-4-2.cir ****
.probe


.END

* H:\Lab-4\lab-4-2\lab-4-2.stl written on Sun May 29 01:08:56 2005
* by Stimulus Editor -- Serial Number: 251265024 -- Version 9.1
;!Stimulus Get
;! A0 Digital A1 Digital A2 Digital A3 Digital B0 Digital B1 Digital B2 Digital B3 Digital
;!Ok
;!Plot Axis_Settings
;!Xrange 0s 6ms
;!AutoUniverse
;!XminRes 1ns
;!YminRes 1n
;!Ok
.STIMULUS A0 STIM (1, 1)
+   +0s 1
+   4ms 0
.STIMULUS A1 STIM (1, 1)
+   +0s 1
+   2ms 0
+   4ms 1
.STIMULUS A2 STIM (1, 1)
+   +0s 0
+   2ms 1
+   4ms 0
.STIMULUS A3 STIM (1, 1)
+   +0s 0
+   2ms 1
.STIMULUS B0 STIM (1, 1)
+   +0s 0
.STIMULUS B1 STIM (1, 1)
+   +0s 0
+   4ms 1
.STIMULUS B2 STIM (1, 1)
+   +0s 1
+   4ms 0
.STIMULUS B3 STIM (1, 1)
+   +0s 1
.STIMULUS A0 STIM (1, 1)
+   +0s 1
+   4ms 0
.STIMULUS A1 STIM (1, 1)
+   +0s 1
+   2ms 0
+   4ms 1
.STIMULUS A2 STIM (1, 1)
+   +0s 0
+   2ms 1
+   4ms 0
.STIMULUS A3 STIM (1, 1)
+   +0s 0
+   2ms 1
.STIMULUS B3 STIM (1, 1)
+   +0s 1
.STIMULUS B2 STIM (1, 1)
+   +0s 1
+   4ms 0
.STIMULUS B1 STIM (1, 1)
+   +0s 0
+   4ms 1

**** 05/29/05 17:09:46 ********* PSpice 9.1 (Nov 1999) ******** ID# 251265024 

 * H:\Lab-4\lab-4-2\lab-4-2.sch


 ****     Digital Gate MODEL PARAMETERS


******************************************************************************




               D0_GATE         
      TPLHMN    0            
      TPLHTY    0            
      TPLHMX    0            
      TPHLMN    0            
      TPHLTY    0            
      TPHLMX    0            


**** 05/29/05 17:09:46 ********* PSpice 9.1 (Nov 1999) ******** ID# 251265024 

 * H:\Lab-4\lab-4-2\lab-4-2.sch


 ****     Digital IO  MODEL PARAMETERS


******************************************************************************




               IO_STM          IO_STD          
        DRVL    0             104            
        DRVH    0              96.4          
       AtoD1                 AtoD_STD        
       AtoD2                 AtoD_STD_NX     
       AtoD3                 AtoD_STD        
       AtoD4                 AtoD_STD_NX     
       DtoA1 DtoA_STM        DtoA_STD        
       DtoA2 DtoA_STM        DtoA_STD        
       DtoA3 DtoA_STM        DtoA_STD        
       DtoA4 DtoA_STM        DtoA_STD        
      TSWHL1                    1.511000E-09 
      TSWHL2                    1.487000E-09 
      TSWHL3                    1.511000E-09 
      TSWHL4                    1.487000E-09 
      TSWLH1                    3.517000E-09 
      TSWLH2                    3.564000E-09 
      TSWLH3                    3.517000E-09 
      TSWLH4                    3.564000E-09 
       TPWRT  100.000000E+03  100.000000E+03 


WARNING -- No analog devices -- Small-Signal analysis ignored

          JOB CONCLUDED

          TOTAL JOB TIME             .44
