
**** 05/28/05 20:02:08 ********* PSpice 9.1 (Nov 1999) ******** ID# 251265024 

 * H:\Lab-5\lab-5-1\lab-5-1.sch


 ****     CIRCUIT DESCRIPTION


******************************************************************************




* Schematics Version 9.1 - Web Update 1
* Fri May 27 21:24:36 2005



** Analysis setup **
.tran 1ms 8ms
.OP 
.STMLIB "H:\Lab-5\lab-5-1\lab-5-1.stl"


* From [PSPICE NETLIST] section of pspice91.ini:
.lib "nom.lib"

.INC "lab-5-1.net"

**** INCLUDING lab-5-1.net ****
* Schematics Netlist *



U_DSTM3         STIM(1,0) $G_DPWR $G_DGND A2 IO_STM STIMULUS=A2
U_DSTM1         STIM(1,0) $G_DPWR $G_DGND A0 IO_STM STIMULUS=A0
U_DSTM2         STIM(1,0) $G_DPWR $G_DGND A1 IO_STM STIMULUS=A1
X_U3A         A1 A0 $N_0001 $G_DPWR $G_DGND 7408 PARAMS:
+ IO_LEVEL=0 MNTYMXDLY=0
X_U5A         $N_0002 $N_0001 F $G_DPWR $G_DGND 7432 PARAMS:
+ IO_LEVEL=0 MNTYMXDLY=0
X_U2A         A2 A1 $N_0003 $G_DPWR $G_DGND 7408 PARAMS:
+ IO_LEVEL=0 MNTYMXDLY=0
X_U1A         A0 A2 $N_0004 $G_DPWR $G_DGND 7408 PARAMS:
+ IO_LEVEL=0 MNTYMXDLY=0
X_U4A         $N_0004 $N_0003 $N_0002 $G_DPWR $G_DGND 7432 PARAMS:
+ IO_LEVEL=0 MNTYMXDLY=0

**** RESUMING lab-5-1.cir ****
.INC "lab-5-1.als"



**** INCLUDING lab-5-1.als ****
* Schematics Aliases *

.ALIASES
U_DSTM3          DSTM3(PWR=$G_DPWR GND=$G_DGND OUT0=A2 )
U_DSTM1          DSTM1(PWR=$G_DPWR GND=$G_DGND OUT0=A0 )
U_DSTM2          DSTM2(PWR=$G_DPWR GND=$G_DGND OUT0=A1 )
X_U3A           U3A(A=A1 B=A0 Y=$N_0001 PWR=$G_DPWR GND=$G_DGND )
X_U5A           U5A(A=$N_0002 B=$N_0001 Y=F PWR=$G_DPWR GND=$G_DGND )
X_U2A           U2A(A=A2 B=A1 Y=$N_0003 PWR=$G_DPWR GND=$G_DGND )
X_U1A           U1A(A=A0 B=A2 Y=$N_0004 PWR=$G_DPWR GND=$G_DGND )
X_U4A           U4A(A=$N_0004 B=$N_0003 Y=$N_0002 PWR=$G_DPWR GND=$G_DGND )
_    _(A2=A2)
_    _(A0=A0)
_    _(A1=A1)
_    _(F=F)
_    _($G_DPWR=$G_DPWR)
_    _($G_DGND=$G_DGND)
.ENDALIASES


**** RESUMING lab-5-1.cir ****
.probe


.END

* H:\Lab-5\lab-5-1\lab-5-1.stl written on Fri May 27 21:16:30 2005
* by Stimulus Editor -- Serial Number: 251265024 -- Version 9.1
;!Stimulus Get
;! A0 Digital A1 Digital A2 Digital
;!Ok
;!Plot Axis_Settings
;!Xrange 0s 8ms
;!AutoUniverse
;!XminRes 1ns
;!YminRes 1n
;!Ok
.STIMULUS A0 STIM (1, 1)
+   +0s 0
+   1ms 1
+   2ms 0
+   3ms 1
+   4ms 0
+   5ms 1
+   6ms 0
+   7ms 1
.STIMULUS A1 STIM (1, 1)
+   +0s 0
+   2ms 1
+   4ms 0
+   6ms 1
.STIMULUS A2 STIM (1, 1)
+   +0s 0
+   4ms 1
.STIMULUS A2 STIM (1, 1)
+   +0s 0
+   4ms 1
.STIMULUS A0 STIM (1, 1)
+   +0s 0
+   1ms 1
+   2ms 0
+   3ms 1
+   4ms 0
+   5ms 1
+   6ms 0
+   7ms 1

**** 05/28/05 20:02:08 ********* PSpice 9.1 (Nov 1999) ******** ID# 251265024 

 * H:\Lab-5\lab-5-1\lab-5-1.sch


 ****     Digital Gate MODEL PARAMETERS


******************************************************************************




               D_08            D_32            
      TPLHMN    7.000000E-09    4.000000E-09 
      TPLHTY   17.500000E-09   10.000000E-09 
      TPLHMX   27.000000E-09   15.000000E-09 
      TPHLMN    4.800000E-09    5.600000E-09 
      TPHLTY   12.000000E-09   14.000000E-09 
      TPHLMX   19.000000E-09   22.000000E-09 


**** 05/28/05 20:02:08 ********* PSpice 9.1 (Nov 1999) ******** ID# 251265024 

 * H:\Lab-5\lab-5-1\lab-5-1.sch


 ****     Digital IO  MODEL PARAMETERS


******************************************************************************




               IO_STM          IO_STD          
        DRVL    0             104            
        DRVH    0              96.4          
       AtoD1                 AtoD_STD        
       AtoD2                 AtoD_STD_NX     
       AtoD3                 AtoD_STD        
       AtoD4                 AtoD_STD_NX     
       DtoA1 DtoA_STM        DtoA_STD        
       DtoA2 DtoA_STM        DtoA_STD        
       DtoA3 DtoA_STM        DtoA_STD        
       DtoA4 DtoA_STM        DtoA_STD        
      TSWHL1                    1.511000E-09 
      TSWHL2                    1.487000E-09 
      TSWHL3                    1.511000E-09 
      TSWHL4                    1.487000E-09 
      TSWLH1                    3.517000E-09 
      TSWLH2                    3.564000E-09 
      TSWLH3                    3.517000E-09 
      TSWLH4                    3.564000E-09 
       TPWRT  100.000000E+03  100.000000E+03 


WARNING -- No analog devices -- Small-Signal analysis ignored

          JOB CONCLUDED

          TOTAL JOB TIME             .04
