
**** 05/28/05 20:07:25 ********* PSpice 9.1 (Nov 1999) ******** ID# 251265024 

 * H:\Lab-1\lab-1-4-t4\lab-1-4-t4.sch


 ****     CIRCUIT DESCRIPTION


******************************************************************************




* Schematics Version 9.1 - Web Update 1
* Sat May 28 17:41:06 2005



** Analysis setup **
.tran 1ms 10ms
.OP 
.STMLIB "H:\Lab-1\lab-1-4-t4\lab-1-4-t4.stl"


* From [PSPICE NETLIST] section of pspice91.ini:
.lib "nom.lib"

.INC "lab-1-4-t4.net"

**** INCLUDING lab-1-4-t4.net ****
* Schematics Netlist *



X_U1A         InputA InputB Output $G_DPWR $G_DGND 7400 PARAMS:
+ IO_LEVEL=0 MNTYMXDLY=0
U_DSTM1         STIM(1,0) $G_DPWR $G_DGND InputA IO_STM STIMULUS=A
U_DSTM2         STIM(1,0) $G_DPWR $G_DGND InputB IO_STM STIMULUS=B

**** RESUMING lab-1-4-t4.cir ****
.INC "lab-1-4-t4.als"



**** INCLUDING lab-1-4-t4.als ****
* Schematics Aliases *

.ALIASES
X_U1A           U1A(A=InputA B=InputB Y=Output PWR=$G_DPWR GND=$G_DGND )
U_DSTM1          DSTM1(PWR=$G_DPWR GND=$G_DGND OUT0=InputA )
U_DSTM2          DSTM2(PWR=$G_DPWR GND=$G_DGND OUT0=InputB )
_    _(InputA=InputA)
_    _(InputB=InputB)
_    _(Output=Output)
_    _($G_DPWR=$G_DPWR)
_    _($G_DGND=$G_DGND)
.ENDALIASES


**** RESUMING lab-1-4-t4.cir ****
.probe


.END

* H:\Lab-1\lab-1-4-t4\lab-1-4-t4.stl written on Sat May 28 17:40:42 2005
* by Stimulus Editor -- Serial Number: 251265024 -- Version 9.1
;!Stimulus Get
;! A Digital B Digital
;!Ok
;!Plot Axis_Settings
;!Xrange 0s 10ms
;!AutoUniverse
;!XminRes 1ns
;!YminRes 1n
;!Ok
.STIMULUS A STIM (1, 1)
+   +0s Z
+   2ms 0
+   4ms Z
+   6ms 1
+   8ms Z
.STIMULUS B STIM (1, 1)
+   +0s 0
+   2ms Z
+   4ms 1
+   6ms Z
.STIMULUS A STIM (1, 1)
+   +0s Z
+   2ms 0
+   4ms Z
+   6ms 1
+   8ms Z

**** 05/28/05 20:07:25 ********* PSpice 9.1 (Nov 1999) ******** ID# 251265024 

 * H:\Lab-1\lab-1-4-t4\lab-1-4-t4.sch


 ****     Digital Gate MODEL PARAMETERS


******************************************************************************




               D_00            
      TPLHMN    4.400000E-09 
      TPLHTY   11.000000E-09 
      TPLHMX   22.000000E-09 
      TPHLMN    2.800000E-09 
      TPHLTY    7.000000E-09 
      TPHLMX   15.000000E-09 


**** 05/28/05 20:07:25 ********* PSpice 9.1 (Nov 1999) ******** ID# 251265024 

 * H:\Lab-1\lab-1-4-t4\lab-1-4-t4.sch


 ****     Digital IO  MODEL PARAMETERS


******************************************************************************




               IO_STM          IO_STD          
        DRVL    0             104            
        DRVH    0              96.4          
       AtoD1                 AtoD_STD        
       AtoD2                 AtoD_STD_NX     
       AtoD3                 AtoD_STD        
       AtoD4                 AtoD_STD_NX     
       DtoA1 DtoA_STM        DtoA_STD        
       DtoA2 DtoA_STM        DtoA_STD        
       DtoA3 DtoA_STM        DtoA_STD        
       DtoA4 DtoA_STM        DtoA_STD        
      TSWHL1                    1.511000E-09 
      TSWHL2                    1.487000E-09 
      TSWHL3                    1.511000E-09 
      TSWHL4                    1.487000E-09 
      TSWLH1                    3.517000E-09 
      TSWLH2                    3.564000E-09 
      TSWLH3                    3.517000E-09 
      TSWLH4                    3.564000E-09 
       TPWRT  100.000000E+03  100.000000E+03 


WARNING -- No analog devices -- Small-Signal analysis ignored

          JOB CONCLUDED

          TOTAL JOB TIME             .03
