
**** 05/28/05 20:08:17 ********* PSpice 9.1 (Nov 1999) ******** ID# 251265024 

 * H:\Lab-1\lab-1-5\lab-1-5-4071.sch


 ****     CIRCUIT DESCRIPTION


******************************************************************************




* Schematics Version 9.1 - Web Update 1
* Sat May 28 17:55:49 2005



** Analysis setup **
.tran 1ms 8ms
.OP 
.STMLIB "H:\Lab-1\lab-1-5\lab-1-5-4071.stl"


* From [PSPICE NETLIST] section of pspice91.ini:
.lib "nom.lib"

.INC "lab-1-5-4071.net"

**** INCLUDING lab-1-5-4071.net ****
* Schematics Netlist *



X_U1A         InputA InputB Output $G_CD4000_VDD $G_CD4000_VSS CD4071B PARAMS:
+ IO_LEVEL=0 MNTYMXDLY=0
U_DSTM1         STIM(1,0) $G_DPWR $G_DGND InputA IO_STM STIMULUS=A
U_DSTM2         STIM(1,0) $G_DPWR $G_DGND InputB IO_STM STIMULUS=B

**** RESUMING lab-1-5-4071.cir ****
.INC "lab-1-5-4071.als"



**** INCLUDING lab-1-5-4071.als ****
* Schematics Aliases *

.ALIASES
X_U1A           U1A(A=InputA B=InputB J=Output VDD=$G_CD4000_VDD
+  VSS=$G_CD4000_VSS )
U_DSTM1          DSTM1(PWR=$G_DPWR GND=$G_DGND OUT0=InputA )
U_DSTM2          DSTM2(PWR=$G_DPWR GND=$G_DGND OUT0=InputB )
_    _(InputA=InputA)
_    _(InputB=InputB)
_    _(Output=Output)
_    _($G_CD4000_VDD=$G_CD4000_VDD)
_    _($G_CD4000_VSS=$G_CD4000_VSS)
_    _($G_DPWR=$G_DPWR)
_    _($G_DGND=$G_DGND)
.ENDALIASES


**** RESUMING lab-1-5-4071.cir ****
.probe


.END

* H:\Lab-1\lab-1-5\lab-1-5-4071.stl written on Sat May 28 17:57:19 2005
* by Stimulus Editor -- Serial Number: 251265024 -- Version 9.1
;!Stimulus Get
;! A Digital B Digital
;!Ok
;!Plot Axis_Settings
;!Xrange 0s 8ms
;!AutoUniverse
;!XminRes 1ns
;!YminRes 1n
;!Ok
.STIMULUS A STIM (1, 1)
+   +0s 0
+   2ms 1
+   4ms 0
+   6ms 1
.STIMULUS B STIM (1, 1)
+   +0s 0
+   4ms 1
.STIMULUS A STIM (1, 1)
+   +0s 0
+   2ms 1
+   4ms 0
+   6ms 1

**** 05/28/05 20:08:17 ********* PSpice 9.1 (Nov 1999) ******** ID# 251265024 

 * H:\Lab-1\lab-1-5\lab-1-5-4071.sch


 ****     Digital Gate MODEL PARAMETERS


******************************************************************************




               D_CD4071B       
      TPLHMN   50.000000E-09 
      TPLHTY  125.000000E-09 
      TPLHMX  250.000000E-09 
      TPHLMN   50.000000E-09 
      TPHLTY  125.000000E-09 
      TPHLMX  250.000000E-09 


**** 05/28/05 20:08:17 ********* PSpice 9.1 (Nov 1999) ******** ID# 251265024 

 * H:\Lab-1\lab-1-5\lab-1-5-4071.sch


 ****     Digital IO  MODEL PARAMETERS


******************************************************************************




               IO_STM          IO_4000B        
        DRVL    0               1.443000E+03 
        DRVH    0               1.443000E+03 
       AtoD1                 AtoD_4000B      
       AtoD2                 AtoD_4000B_NX   
       AtoD3                 AtoD_4000B      
       AtoD4                 AtoD_4000B_NX   
       DtoA1 DtoA_STM        DtoA_4000B      
       DtoA2 DtoA_STM        DtoA_4000B      
       DtoA3 DtoA_STM        DtoA_4000B      
       DtoA4 DtoA_STM        DtoA_4000B      
    DIGPOWER                 CD4000_PWR      
      TSWHL1                    7.720000E-09 
      TSWHL2                    7.860000E-09 
      TSWHL3                    9.710000E-09 
      TSWHL4                    9.630000E-09 
      TSWLH1                    7.560000E-09 
      TSWLH2                    7.400000E-09 
      TSWLH3                    9.410000E-09 
      TSWLH4                    9.240000E-09 
       TPWRT  100.000000E+03  100.000000E+03 


WARNING -- No analog devices -- Small-Signal analysis ignored

          JOB CONCLUDED

          TOTAL JOB TIME             .09
