
**** 05/28/05 17:21:12 ********* PSpice 9.1 (Nov 1999) ******** ID# 251265024 

 * H:\Lab-3\lab-3-5\lab-3-5.sch


 ****     CIRCUIT DESCRIPTION


******************************************************************************




* Schematics Version 9.1 - Web Update 1
* Sat May 28 15:54:47 2005



** Analysis setup **
.tran 1ms 10ms
.OP 
.STMLIB "H:\Lab-3\lab-3-5\lab-3-5.stl"


* From [PSPICE NETLIST] section of pspice91.ini:
.lib "nom.lib"

.INC "lab-3-5.net"

**** INCLUDING lab-3-5.net ****
* Schematics Netlist *



X_U2A         A0 A0 $N_0001 $G_DPWR $G_DGND 7400 PARAMS:
+ IO_LEVEL=0 MNTYMXDLY=0
X_U3A         A3 A1 $N_0002 $G_DPWR $G_DGND 7400 PARAMS:
+ IO_LEVEL=0 MNTYMXDLY=0
X_U5A         A1 A1 $N_0003 $G_DPWR $G_DGND 7400 PARAMS:
+ IO_LEVEL=0 MNTYMXDLY=0
X_U8A         $N_0003 $N_0004 $N_0005 $G_DPWR $G_DGND 7400 PARAMS:
+ IO_LEVEL=0 MNTYMXDLY=0
X_U6A         A2 A0 $N_0004 $G_DPWR $G_DGND 7400 PARAMS:
+ IO_LEVEL=0 MNTYMXDLY=0
X_U11A         $N_0003 $N_0006 e $G_DPWR $G_DGND 7400 PARAMS:
+ IO_LEVEL=0 MNTYMXDLY=0
X_U9A         A3 $N_0005 d $G_DPWR $G_DGND 7400 PARAMS:
+ IO_LEVEL=0 MNTYMXDLY=0
X_U7A         $N_0001 $N_0003 c $G_DPWR $G_DGND 7400 PARAMS:
+ IO_LEVEL=0 MNTYMXDLY=0
X_U4A         $N_0001 $N_0002 b $G_DPWR $G_DGND 7400 PARAMS:
+ IO_LEVEL=0 MNTYMXDLY=0
X_U1A         A2 A0 a $G_DPWR $G_DGND 7400 PARAMS:
+ IO_LEVEL=0 MNTYMXDLY=0
X_U10A         A2 A2 $N_0006 $G_DPWR $G_DGND 7400 PARAMS:
+ IO_LEVEL=0 MNTYMXDLY=0
U_DSTM1         STIM(1,0) $G_DPWR $G_DGND A0 IO_STM STIMULUS=A0
U_DSTM2         STIM(1,0) $G_DPWR $G_DGND A1 IO_STM STIMULUS=A1
U_DSTM3         STIM(1,0) $G_DPWR $G_DGND A2 IO_STM STIMULUS=A2
U_DSTM4         STIM(1,0) $G_DPWR $G_DGND A3 IO_STM STIMULUS=A3
X_U12A         $D_LO f $G_DPWR $G_DGND 7404 PARAMS:
+ IO_LEVEL=0 MNTYMXDLY=0
X_U13A         $D_LO g $G_DPWR $G_DGND 7404 PARAMS:
+ IO_LEVEL=0 MNTYMXDLY=0

**** RESUMING lab-3-5.cir ****
.INC "lab-3-5.als"



**** INCLUDING lab-3-5.als ****
* Schematics Aliases *

.ALIASES
X_U2A           U2A(A=A0 B=A0 Y=$N_0001 PWR=$G_DPWR GND=$G_DGND )
X_U3A           U3A(A=A3 B=A1 Y=$N_0002 PWR=$G_DPWR GND=$G_DGND )
X_U5A           U5A(A=A1 B=A1 Y=$N_0003 PWR=$G_DPWR GND=$G_DGND )
X_U8A           U8A(A=$N_0003 B=$N_0004 Y=$N_0005 PWR=$G_DPWR GND=$G_DGND )
X_U6A           U6A(A=A2 B=A0 Y=$N_0004 PWR=$G_DPWR GND=$G_DGND )
X_U11A          U11A(A=$N_0003 B=$N_0006 Y=e PWR=$G_DPWR GND=$G_DGND )
X_U9A           U9A(A=A3 B=$N_0005 Y=d PWR=$G_DPWR GND=$G_DGND )
X_U7A           U7A(A=$N_0001 B=$N_0003 Y=c PWR=$G_DPWR GND=$G_DGND )
X_U4A           U4A(A=$N_0001 B=$N_0002 Y=b PWR=$G_DPWR GND=$G_DGND )
X_U1A           U1A(A=A2 B=A0 Y=a PWR=$G_DPWR GND=$G_DGND )
X_U10A          U10A(A=A2 B=A2 Y=$N_0006 PWR=$G_DPWR GND=$G_DGND )
U_DSTM1          DSTM1(PWR=$G_DPWR GND=$G_DGND OUT0=A0 )
U_DSTM2          DSTM2(PWR=$G_DPWR GND=$G_DGND OUT0=A1 )
U_DSTM3          DSTM3(PWR=$G_DPWR GND=$G_DGND OUT0=A2 )
U_DSTM4          DSTM4(PWR=$G_DPWR GND=$G_DGND OUT0=A3 )
X_U12A          U12A(A=$D_LO Y=f PWR=$G_DPWR GND=$G_DGND )
X_U13A          U13A(A=$D_LO Y=g PWR=$G_DPWR GND=$G_DGND )
_    _(A0=A0)
_    _(A3=A3)
_    _(A1=A1)
_    _(A2=A2)
_    _(e=e)
_    _(d=d)
_    _(c=c)
_    _(b=b)
_    _(a=a)
_    _(f=f)
_    _(g=g)
_    _($G_DGND=$G_DGND)
_    _($G_DPWR=$G_DPWR)
.ENDALIASES


**** RESUMING lab-3-5.cir ****
.probe


.END

* H:\Lab-3\lab-3-5\lab-3-5.stl written on Sat May 28 15:39:38 2005
* by Stimulus Editor -- Serial Number: 251265024 -- Version 9.1
;!Stimulus Get
;! A0 Digital A1 Digital A2 Digital A3 Digital
;!Ok
;!Plot Axis_Settings
;!Xrange 0s 10ms
;!AutoUniverse
;!XminRes 1ns
;!YminRes 1n
;!Ok
.STIMULUS A0 STIM (1, 1)
+   +0s 0
+   2ms 1
+   4ms 0
+   8ms 1
.STIMULUS A1 STIM (1, 1)
+   +0s 1
+   2ms 0
+   4ms 1
+   6ms 0
.STIMULUS A2 STIM (1, 1)
+   +0s 1
+   2ms 0
+   6ms 1
.STIMULUS A3 STIM (1, 1)
+   +0s 0
+   2ms 1
.STIMULUS A0 STIM (1, 1)
+   +0s 0
+   2ms 1
+   4ms 0
+   8ms 1
.STIMULUS A1 STIM (1, 1)
+   +0s 1
+   2ms 0
+   4ms 1
+   6ms 0
.STIMULUS A2 STIM (1, 1)
+   +0s 1
+   2ms 0
+   6ms 1

**** 05/28/05 17:21:12 ********* PSpice 9.1 (Nov 1999) ******** ID# 251265024 

 * H:\Lab-3\lab-3-5\lab-3-5.sch


 ****     Digital Gate MODEL PARAMETERS


******************************************************************************




               D_00            D_04            
      TPLHMN    4.400000E-09    4.800000E-09 
      TPLHTY   11.000000E-09   12.000000E-09 
      TPLHMX   22.000000E-09   22.000000E-09 
      TPHLMN    2.800000E-09    3.200000E-09 
      TPHLTY    7.000000E-09    8.000000E-09 
      TPHLMX   15.000000E-09   15.000000E-09 


**** 05/28/05 17:21:12 ********* PSpice 9.1 (Nov 1999) ******** ID# 251265024 

 * H:\Lab-3\lab-3-5\lab-3-5.sch


 ****     Digital IO  MODEL PARAMETERS


******************************************************************************




               IO_STM          IO_STD          
        DRVL    0             104            
        DRVH    0              96.4          
       AtoD1                 AtoD_STD        
       AtoD2                 AtoD_STD_NX     
       AtoD3                 AtoD_STD        
       AtoD4                 AtoD_STD_NX     
       DtoA1 DtoA_STM        DtoA_STD        
       DtoA2 DtoA_STM        DtoA_STD        
       DtoA3 DtoA_STM        DtoA_STD        
       DtoA4 DtoA_STM        DtoA_STD        
      TSWHL1                    1.511000E-09 
      TSWHL2                    1.487000E-09 
      TSWHL3                    1.511000E-09 
      TSWHL4                    1.487000E-09 
      TSWLH1                    3.517000E-09 
      TSWLH2                    3.564000E-09 
      TSWLH3                    3.517000E-09 
      TSWLH4                    3.564000E-09 
       TPWRT  100.000000E+03  100.000000E+03 


WARNING -- No analog devices -- Small-Signal analysis ignored

          JOB CONCLUDED

          TOTAL JOB TIME             .04
